Version 4
SHEET 1 880 680
WIRE 528 16 448 16
WIRE 544 16 528 16
WIRE 32 32 -48 32
WIRE 48 32 32 32
WIRE 528 48 528 16
WIRE 32 64 32 32
WIRE 448 64 448 16
WIRE 656 64 560 64
WIRE -48 80 -48 32
WIRE 160 80 64 80
WIRE 624 128 624 16
WIRE 128 144 128 32
WIRE 528 144 528 128
WIRE 560 144 560 64
WIRE 560 144 528 144
WIRE 592 144 560 144
WIRE 32 160 32 144
WIRE 64 160 64 80
WIRE 64 160 32 160
WIRE 96 160 64 160
WIRE 736 160 736 64
WIRE 736 160 656 160
WIRE 848 160 736 160
WIRE 240 176 240 80
WIRE 240 176 160 176
WIRE 352 176 240 176
WIRE 448 176 416 176
WIRE 480 176 448 176
WIRE 576 176 544 176
WIRE 592 176 576 176
WIRE -48 192 -80 192
WIRE -16 192 -48 192
WIRE 80 192 48 192
WIRE 96 192 80 192
WIRE 448 192 448 176
WIRE -48 208 -48 192
WIRE 576 224 576 176
WIRE 80 240 80 192
WIRE 736 256 736 160
WIRE 736 256 496 256
WIRE -144 272 -144 192
WIRE 240 272 240 176
WIRE 240 272 0 272
WIRE 496 272 496 256
WIRE 496 272 448 272
WIRE 624 272 624 192
WIRE 0 288 0 272
WIRE 0 288 -48 288
WIRE 128 288 128 208
WIRE 576 352 576 304
WIRE 592 352 576 352
WIRE 624 352 592 352
WIRE -144 368 -144 352
WIRE 80 368 80 320
WIRE 80 368 -144 368
WIRE 96 368 80 368
WIRE 128 368 96 368
WIRE 592 384 592 352
WIRE 96 400 96 368
FLAG 96 400 0
FLAG -48 80 0
FLAG 592 384 0
FLAG 448 64 0
SYMBOL Opamps\\OP07 128 112 R0
WINDOW 0 16 32 Invisible 2
SYMATTR InstName U1
SYMBOL res 256 64 R90
WINDOW 0 0 56 Invisible 2
WINDOW 3 32 56 VTop 2
SYMATTR InstName R3
SYMATTR Value 3.3k
SYMBOL res 48 160 R180
WINDOW 0 36 76 Invisible 2
WINDOW 3 36 40 Left 2
SYMATTR InstName R4
SYMATTR Value 5.6k
SYMBOL voltage 144 32 R90
WINDOW 0 -32 56 Invisible 2
WINDOW 3 32 56 VTop 2
WINDOW 123 0 0 Left 2
WINDOW 39 0 0 Left 2
SYMATTR InstName V1
SYMATTR Value 5
SYMBOL voltage 128 272 R0
WINDOW 0 24 16 Invisible 2
WINDOW 123 0 0 Left 2
WINDOW 39 0 0 Left 2
SYMATTR InstName V2
SYMATTR Value -5
SYMBOL voltage -144 256 R0
WINDOW 0 24 16 Invisible 2
WINDOW 123 24 124 Left 2
WINDOW 39 0 0 Left 2
SYMATTR InstName V3
SYMATTR Value2 AC 1
SYMATTR Value SINE()
SYMBOL cap -80 176 R90
WINDOW 0 0 32 Invisible 2
WINDOW 3 32 32 VTop 2
SYMATTR InstName C6
SYMATTR Value 10n
SYMBOL cap 48 176 R90
WINDOW 0 0 32 Invisible 2
WINDOW 3 32 32 VTop 2
SYMATTR InstName C7
SYMATTR Value 10n
SYMBOL res -64 192 R0
WINDOW 0 36 40 Invisible 2
SYMATTR InstName R1
SYMATTR Value 5.6k
SYMBOL res 64 224 R0
WINDOW 0 36 40 Invisible 2
SYMATTR InstName R2
SYMATTR Value 5.6k
SYMBOL Opamps\\OP07 624 96 R0
WINDOW 0 16 32 Invisible 2
SYMATTR InstName U2
SYMBOL res 752 48 R90
WINDOW 0 0 56 Invisible 2
WINDOW 3 32 56 VTop 2
SYMATTR InstName R5
SYMATTR Value 3.3k
SYMBOL res 544 144 R180
WINDOW 0 36 76 Invisible 2
WINDOW 3 36 40 Left 2
SYMATTR InstName R6
SYMATTR Value 5.6k
SYMBOL voltage 640 16 R90
WINDOW 0 -32 56 Invisible 2
WINDOW 3 32 56 VTop 2
WINDOW 123 0 0 Left 2
WINDOW 39 0 0 Left 2
SYMATTR InstName V4
SYMATTR Value 5
SYMBOL voltage 624 256 R0
WINDOW 0 24 16 Invisible 2
WINDOW 123 0 0 Left 2
WINDOW 39 0 0 Left 2
SYMATTR InstName V5
SYMATTR Value -5
SYMBOL cap 416 160 R90
WINDOW 0 0 32 Invisible 2
WINDOW 3 32 32 VTop 2
SYMATTR InstName C1
SYMATTR Value 10n
SYMBOL cap 544 160 R90
WINDOW 0 0 32 Invisible 2
WINDOW 3 32 32 VTop 2
SYMATTR InstName C2
SYMATTR Value 10n
SYMBOL res 432 176 R0
WINDOW 0 36 40 Invisible 2
SYMATTR InstName R7
SYMATTR Value 5.6k
SYMBOL res 560 208 R0
WINDOW 0 36 40 Invisible 2
SYMATTR InstName R8
SYMATTR Value 5.6k
TEXT 112 -80 Left 2 !.ac oct 10 10 100000
